%%%%%%%%%%%%%%%%%%%%%%%%%%%%%%%%%%%%%%%%%%%%%%%%%%%%%%%%%%%%%%%%%%%%%%%%%%%%%%%%
%                                                                              %
% SU2 configuration file                                                       %
% Case description: Coupled FSI simulation of fluid flow over a flap           %
% Authors: Kirill Martynov, Dmytro Sashko, Jan Sültemeyer                      %
% Institution: Technische Universität München                                  %
% Date: 01.11.2017                                                             %
%                                                                              %
%%%%%%%%%%%%%%%%%%%%%%%%%%%%%%%%%%%%%%%%%%%%%%%%%%%%%%%%%%%%%%%%%%%%%%%%%%%%%%%%

% ------------- PRECICE PROBLEM DEFINITION ------------%

PRECICE_USAGE= YES
%
PRECICE_CONFIG_FILENAME= ./precice-config.xml
%
PRECICE_WETSURFACE_MARKER_NAME= wetSurface
%
PRECICE_NUMBER_OF_WETSURFACES= 1

% ------------- DIRECT, ADJOINT, AND LINEARIZED PROBLEM DEFINITION ------------%

% Physical governing equations (EULER, NAVIER_STOKES, NS_PLASMA)
PHYSICAL_PROBLEM= NAVIER_STOKES
KIND_TURB_MODEL = SA

%
% Mathematical problem (DIRECT, CONTINUOUS_ADJOINT)
MATH_PROBLEM= DIRECT
%
% Restart solution (NO, YES)
RESTART_SOL= NO

% -------------------- COMPRESSIBLE FREE-STREAM DEFINITION --------------------%

% Mach number (non-dimensional, based on the free-stream values)
MACH_NUMBER= 0.2
%
% Angle of attack (degrees, only for compressible flows)
AOA= 0.0
%
% Side-slip angle (degrees, only for compressible flows)
SIDESLIP_ANGLE= 0.0
%
% Free-stream pressure (101325.0 N/m^2 by default)
FREESTREAM_PRESSURE= 5.5453
%
% Free-stream temperature (288.15 K by default)
FREESTREAM_TEMPERATURE= 0.0164

REYNOLDS_LENGTH = 0.01

REYNOLDS_NUMBER = 332


REF_DIMENSIONALIZATION= DIMENSIONAL

%----------------------------VISCOSITY MODEL ---------------------------------%

VISCOSITY_MODEL= CONSTANT_VISCOSITY

MU_CONSTANT= 1.82E-5

MU_REF= 1.716E-5

MU_T_REF= 273.15

SUTHERLAND_CONSTANT= 110.4

% ------------------------- UNSTEADY SIMULATION -------------------------------%

% Unsteady simulation (NO, TIME_STEPPING, DUAL_TIME_STEPPING-1ST_ORDER,
%                      DUAL_TIME_STEPPING-2ND_ORDER, TIME_SPECTRAL)
UNSTEADY_SIMULATION= DUAL_TIME_STEPPING-2ND_ORDER
%
% Time Step for dual time stepping simulations (s)
UNST_TIMESTEP= 0.005
%
% Total Physical Time for dual time stepping simulations (s)
UNST_TIME= 0.01
%
% Number of internal iterations (dual time method)
UNST_INT_ITER= 20
%
% Iteration number to begin unsteady restarts
UNST_RESTART_ITER=0

% ----------------------- DYNAMIC MESH DEFINITION -----------------------------%

% Dynamic mesh simulation (NO, YES)
GRID_MOVEMENT= YES
%
% Type of dynamic mesh (NONE, RIGID_MOTION, DEFORMING, ROTATING_FRAME,
%                       MOVING_WALL, STEADY_TRANSLATION, FLUID_STRUCTURE,
%                       AEROELASTIC, ELASTICITY, EXTERNAL,
%                       AEROELASTIC_RIGID_MOTION, GUST, PRECICE_MOVEMENT)
GRID_MOVEMENT_KIND= PRECICE_MOVEMENT
%
% Moving wall boundary marker(s) (NONE = no marker, ignored for RIGID_MOTION)
MARKER_MOVING= ( wetSurface0 )

% -------------------- BOUNDARY CONDITION DEFINITION --------------------------%

% Euler wall boundary marker(s) (NONE = no marker)

MARKER_EULER= (upper_wall, lower_wall)
MARKER_HEATFLUX= (wetSurface0, 0.0, square, 0.0)
MARKER_INLET= (inlet, 0.0164, 5.7022, 1.0, 0.0, 0.0)
MARKER_OUTLET= (outlet, 5.5453)


%
% Symmetry boundary marker for quasi-2D simulation
MARKER_SYM = (fnb)


% Marker(s) of the surface in the surface flow solution file
MARKER_PLOTTING = (wetSurface0)

% Marker(s) of the surface where the non-dimensional coefficients are evaluated.
MARKER_MONITORING = (wetSurface0)

REF_LENGTH = 0.01

REF_AREA = 4E-05
% ------------- COMMON PARAMETERS DEFINING THE NUMERICAL METHOD ---------------%

% Numerical method for spatial gradients (GREEN_GAUSS, WEIGHTED_LEAST_SQUARES)
NUM_METHOD_GRAD= GREEN_GAUSS
%
% Courant-Friedrichs-Lewy condition of the finest grid
CFL_NUMBER= 7.0
%
% Adaptive CFL number (NO, YES)
CFL_ADAPT= NO
%
% Parameters of the adaptive CFL number (factor down, factor up, CFL min value,
%                                        CFL max value )
CFL_ADAPT_PARAM= ( 1.5, 0.5, 1.0, 100.0 )
%
% Runge-Kutta alpha coefficients
RK_ALPHA_COEFF= ( 0.66667, 0.66667, 1.000000 )
%
% Number of total iterations
EXT_ITER= 999999

% ------------------------ LINEAR SOLVER DEFINITION ---------------------------%

% Linear solver for implicit formulations (BCGSTAB, FGMRES)
LINEAR_SOLVER= FGMRES
%
% Preconditioner of the Krylov linear solver (JACOBI, LINELET, LU_SGS)
LINEAR_SOLVER_PREC= LU_SGS
%
% Minimum error of the linear solver for implicit formulations
LINEAR_SOLVER_ERROR= 1E-4
%
% Max number of iterations of the linear solver for the implicit formulation
LINEAR_SOLVER_ITER= 100

% -------------------------- MULTIGRID PARAMETERS -----------------------------%

% Multi-Grid Levels (0 = no multi-grid)
MGLEVEL= 0
%
% Multi-grid cycle (V_CYCLE, W_CYCLE, FULLMG_CYCLE)
MGCYCLE= V_CYCLE
%
% Multi-grid pre-smoothing level
MG_PRE_SMOOTH= ( 1, 2, 3, 3 )
%
% Multi-grid post-smoothing level
MG_POST_SMOOTH= ( 0, 0, 0, 0 )
%
% Jacobi implicit smoothing of the correction
MG_CORRECTION_SMOOTH= ( 0, 0, 0, 0 )
%
% Damping factor for the residual restriction
MG_DAMP_RESTRICTION= 0.9
%
% Damping factor for the correction prolongation
MG_DAMP_PROLONGATION= 0.9

% -------------------- FLOW NUMERICAL METHOD DEFINITION -----------------------%

% Convective numerical method (JST, LAX-FRIEDRICH, CUSP, ROE, AUSM, HLLC,
%                              TURKEL_PREC, MSW)
CONV_NUM_METHOD_FLOW= JST
%
% Monotonic Upwind Scheme for Conservation Laws (TVD) in the flow equations.
%           Required for 2nd order upwind schemes (NO, YES)
MUSCL_FLOW= YES
%
% Slope limiter (NONE, VENKATAKRISHNAN, VENKATAKRISHNAN_WANG,
%                BARTH_JESPERSEN, VAN_ALBADA_EDGE)
SLOPE_LIMITER_FLOW= VENKATAKRISHNAN
%
% Coefficient for the Venkat's limiter (upwind scheme). A larger values decrease
%             the extent of limiting, values approaching zero cause
%             lower-order approximation to the solution (0.05 by default)
VENKAT_LIMITER_COEFF= 0.05
%
% 2nd and 4th order artificial dissipation coefficients for
%     the JST method ( 0.5, 0.02 by default )
JST_SENSOR_COEFF= ( 0.5, 0.02 )
%
% Time discretization (RUNGE-KUTTA_EXPLICIT, EULER_IMPLICIT, EULER_EXPLICIT)
TIME_DISCRE_FLOW= EULER_IMPLICIT


%-----------------------------TURBULENT NUMERICAL METHOD-----------------------%

CONV_NUM_METHOD_TURB= SCALAR_UPWIND
MUSCL_TURB = NO
SLOPE_LIMITER_TURB= NONE
TIME_DISCRE_TURB=EULER_IMPLICIT
CFL_REDUCTION_TURB=1.0

% --------------------------- CONVERGENCE PARAMETERS --------------------------%

% Convergence criteria (CAUCHY, RESIDUAL)
%
CONV_CRITERIA= CAUCHY
%
% Residual reduction (order of magnitude with respect to the initial value)
RESIDUAL_REDUCTION= 5
%
% Min value of the residual (log10 of the residual)
RESIDUAL_MINVAL= -20
%
% Start convergence criteria at iteration number
STARTCONV_ITER= 20

CAUCHY_EPS= 1E-4

CAUCHY_FUNC_FLOW= DRAG

% ------------------------- INPUT/OUTPUT INFORMATION --------------------------%

% Write residuals
WRT_RESIDUALS= YES
%
% Mesh input file
MESH_FILENAME= Fluid/SQUARE.su2
%
% Mesh input file format (SU2, CGNS, NETCDF_ASCII)
MESH_FORMAT= SU2
%
% Restart flow input file
SOLUTION_FLOW_FILENAME=Fluid/restart_flow.dat
%
% Output file format (PARAVIEW, TECPLOT, STL)
OUTPUT_FORMAT= TECPLOT_BINARY
%
% Output file convergence history (w/o extension)
CONV_FILENAME= history
%
% Write binary restart files (YES, NO)
WRT_BINARY_RESTART= YES
%
% Read binary restart files (YES, NO)
READ_BINARY_RESTART= YES
%
% Output file flow (w/o extension) variables
VOLUME_FLOW_FILENAME= flow
%
% Write surface solution files
WRT_SRF_SOL= NO
%
% Writing solution file frequency
WRT_SOL_FREQ= 1
%
% Writing solution file frequency for physical time steps (dual time)
WRT_SOL_FREQ_DUALTIME= 1
%
% Writing convergence history frequency
WRT_CON_FREQ= 1
%
% Writing convergence history frequency
WRT_CON_FREQ_DUALTIME= 1

% ------------------------ GRID DEFORMATION PARAMETERS ------------------------%
%
% Linear solver or smoother for implicit formulations (FGMRES, RESTARTED_FGMRES, BCGSTAB)
DEFORM_LINEAR_SOLVER= FGMRES
%
% Preconditioner of the Krylov linear solver (ILU, LU_SGS, JACOBI)
DEFORM_LINEAR_SOLVER_PREC= LU_SGS
%
% Number of smoothing iterations for mesh deformation
DEFORM_LINEAR_ITER= 1000
%
% Number of nonlinear deformation iterations (surface deformation increments)
DEFORM_NONLINEAR_ITER= 1

% 
  
% Print the residuals during mesh deformation to the console (YES, NO)
DEFORM_CONSOLE_OUTPUT= YES
%
% Factor to multiply smallest cell volume for deform tolerance (0.001 default)
DEFORM_TOL_FACTOR = 1E-03
%
% Type of element stiffness imposed for FEA mesh deformation (INVERSE_VOLUME,
%                                          WALL_DISTANCE, CONSTANT_STIFFNESS)
DEFORM_STIFFNESS_TYPE= WALL_DISTANCE

DEFORM_COEFF  =0.1

% Deform the grid only close to the surface. It is possible to specify how much 
% of the volumentric grid is going to be deformed in meters or inches (1E6 by default)

DEFORM_LIMIT = 1E20

% Visualize the deformation (NO, YES)
VISUALIZE_DEFORMATION= YES
